 66
 Free_Energy: -4540.122473 Electronic_Energy: -4540.52964503  Gyration_radius:  4.01818826082
 N	-1.297719 0.332899 -1.957519
H	-1.275264 0.977941 -1.135633
H	-2.236110 -0.075416 -2.069226
H	-1.008391 0.868284 -2.775414
H	-0.631012 -0.439491 -1.815278
N	1.459986 -2.658323 2.250236
H	1.886703 -3.270844 2.940007
H	1.296137 -3.168729 1.362813
H	0.541906 -2.310671 2.605909
H	2.085899 -1.849159 2.069808
N	-1.993712 -3.276353 -0.423208
H	-2.767816 -3.764881 0.021348
H	-1.111420 -3.811163 -0.447875
H	-2.280808 -2.979749 -1.359750
H	-1.806930 -2.392767 0.105345
N	4.345213 -1.494546 -2.021773
H	3.697624 -2.293512 -2.174370
H	3.861815 -0.624293 -2.331903
H	4.541657 -1.404479 -1.004149
H	5.208796 -1.619366 -2.542208
N	-3.620340 2.123729 1.539997
H	-2.780218 1.717017 1.986276
H	-3.343312 3.017079 1.074908
H	-3.959851 1.454139 0.827213
H	-4.344168 2.271389 2.237676
N	0.976895 1.799926 1.673586
H	1.819787 1.553624 2.192310
H	0.863059 2.813101 1.495824
H	1.025153 1.346822 0.744921
H	0.131338 1.441891 2.146444
S	1.996927 1.541225 -1.921423
O	2.935680 0.772981 -2.751992
O	0.992378 2.304243 -2.664016
O	1.359968 0.661952 -0.877487
O	2.812606 2.625905 -1.098515
H	3.405525 2.164890 -0.453688
H	1.707197 -0.792113 -0.645137
S	4.258941 0.025835 1.470729
O	4.834542 -1.092377 0.705699
O	4.265040 1.305681 0.737966
O	2.970297 -0.275256 2.122560
O	5.231802 0.249823 2.745900
H	6.095122 0.547883 2.427182
S	-1.701463 -0.721277 2.278852
O	-1.409038 0.649042 2.749565
O	-1.476385 -0.891934 0.820810
O	-1.033429 -1.773821 3.065584
O	-3.273681 -0.854896 2.520227
H	-3.712776 -1.340013 1.769954
S	-1.167656 3.672061 -0.096883
O	0.007744 4.206921 0.606957
O	-1.238433 2.185664 0.043028
O	-2.454351 4.296565 0.248076
O	-0.991310 3.968112 -1.659422
H	-0.170421 3.531834 -1.982975
S	-4.569274 -1.079745 -0.747235
O	-4.655515 0.343715 -0.393288
O	-3.615446 -1.344422 -1.847466
O	-4.394136 -1.994301 0.400609
O	-6.025647 -1.510688 -1.295853
H	-6.252405 -0.947499 -2.049255
S	1.232804 -2.835676 -1.302697
O	0.108255 -2.160402 -1.977031
O	2.263828 -3.371005 -2.200149
O	1.977578 -1.736231 -0.408898
O	0.759710 -3.821751 -0.286838
